*HEADING
cubit(D:\Lavoro\Tsunami\Stress_Drop\ANTI-FASc-main\ANTI-FASc-main\preprocess):11-Jun-2022:
version: 14.0
**
********************************** P A R T S **********************************
*PART, NAME=Part-Default
**
********************************** N O D E S **********************************
*NODE, NSET=ALLNODES
1,     1.6283072775e+01,     3.9836210728e+01,   -3.096829e+04
2,     1.6066598943e+01,     3.9903002861e+01,   -3.697633e+04
3,     1.6197414194e+01,     3.9795051133e+01,   -3.295673e+04
4,     1.6325355726e+01,     3.9707914486e+01,   -2.906385e+04
5,     1.6215431447e+01,     3.9604511784e+01,   -3.223596e+04
6,     1.6086997518e+01,     3.9691668246e+01,   -3.578398e+04
7,     1.5982367072e+01,     3.9586785838e+01,   -4.209489e+04
8,     1.5857557947e+01,     3.9672695049e+01,   -4.812341e+04
9,     1.5761189261e+01,     3.9565604161e+01,   -5.946848e+04
10,     1.5617780257e+01,     3.9695518232e+01,   -7.167550e+04
11,     1.5731798527e+01,     3.9758629066e+01,   -5.374368e+04
12,     1.5690667128e+01,     3.9865270909e+01,   -4.821220e+04
13,     1.5830611077e+01,     3.9865182091e+01,   -4.380568e+04
14,     1.5958905088e+01,     3.9778508708e+01,   -3.975623e+04
15,     1.5997401202e+01,     3.9941855792e+01,   -3.877189e+04
16,     1.5728941578e+01,     3.9953188710e+01,   -4.471800e+04
17,     1.5875604445e+01,     4.0037810216e+01,   -4.218637e+04
18,     1.5765258681e+01,     4.0071296323e+01,   -4.420943e+04
19,     1.5579370231e+01,     3.9525691457e+01,   -7.657341e+04
20,     1.5664018808e+01,     3.9458705385e+01,   -7.011176e+04
** ... 571 like lines cut
**
********************************** E L E M E N T S ****************************
*ELEMENT, TYPE=STRI3, ELSET=EB1
1,        1,        2,        3
2,        4,        1,        3
3,        5,        4,        3
4,        5,        3,        6
5,        7,        5,        6
6,        6,        8,        7
7,        9,        7,        8
8,       10,        9,        8
9,       10,        8,       11
10,       12,       10,       11
11,       13,       12,       11
12,       13,       11,       14
13,       15,       13,       14
14,       14,        2,       15
15,        6,        2,       14
16,       15,       16,       13
17,       15,       17,       16
18,       16,       12,       13
19,       17,       18,       16
20,        9,       10,       19
** ... 1052 like lines cut
**
********************************** P R O P E R T I E S ************************
*SHELL SECTION, ELSET=EB1, SECTION INTEGRATION=SIMPSON, MATERIAL=Default-Steel
1.000000e+00
**
*END PART
**
**
**
********************************** E N D   P A R T S **********************************
**
**
********************************** A S S E M B L Y ************************************
**
*ASSEMBLY, NAME=ASSEMBLY1
**
*INSTANCE, NAME=Part-Default_1, PART=Part-Default
*END INSTANCE
**
*END ASSEMBLY
**
**
**
*MATERIAL, NAME = Default-Steel
*ELASTIC, TYPE=ISOTROPIC
2.068000e+05, 2.900000e-01
*DENSITY
7.000000e-06
*CONDUCTIVITY,TYPE=ISO
4.500000e-02
*SPECIFIC HEAT
5.000000e+02
**
**
************************************** H I S T O R Y *************************************
**
*PREPRINT
**
**************************************** S T E P 1 ***************************************
*STEP,INC=100,NAME=Default Set
**
*STATIC
1, 1, 1e-05, 1
**
