*HEADING
cubit(/home/scala/FASc-1.0_testPTF/preprocess):24-Oct-2020:
version: 14.0
**
********************************** P A R T S **********************************
*PART, NAME=Part-Default
**
********************************** N O D E S **********************************
*NODE, NSET=ALLNODES
1,    -1.2501666700e+02,     4.0556667000e+01,   -0.000000e+00
2,    -1.2437452400e+02,     4.0764694000e+01,   -9.974764e+03
3,    -1.2379141900e+02,     4.1074033000e+01,   -1.398957e+04
4,    -1.2323325900e+02,     4.1364320000e+01,   -3.000000e+04
5,    -1.2506682100e+02,     4.1119508000e+01,   -0.000000e+00
6,    -1.2444893700e+02,     4.1267260000e+01,   -5.564885e+03
7,    -1.2389421000e+02,     4.1494823000e+01,   -1.408177e+04
8,    -1.2334901300e+02,     4.1711026000e+01,   -3.000000e+04
9,    -1.2501987200e+02,     4.1661636000e+01,   -0.000000e+00
10,    -1.2440415600e+02,     4.1720139000e+01,   -5.210697e+03
11,    -1.2393508200e+02,     4.1933235000e+01,   -1.527563e+04
12,    -1.2337573700e+02,     4.2073903000e+01,   -3.000000e+04
13,    -1.2505102100e+02,     4.2117578000e+01,   -0.000000e+00
14,    -1.2445755600e+02,     4.2182831000e+01,   -6.172645e+03
15,    -1.2394072000e+02,     4.2351282000e+01,   -1.668570e+04
16,    -1.2337886900e+02,     4.2456359000e+01,   -3.000000e+04
17,    -1.2516311500e+02,     4.2550010000e+01,   -0.000000e+00
18,    -1.2455961800e+02,     4.2624717000e+01,   -6.662058e+03
19,    -1.2399296500e+02,     4.2760859000e+01,   -1.698701e+04
20,    -1.2340692300e+02,     4.2843689000e+01,   -3.000000e+04
** ... 1137 like lines cut
**
********************************** E L E M E N T S ****************************
*ELEMENT, TYPE=STRI3, ELSET=EB1
1,       83,      450,      433
2,       18,      764,      719
3,       39,      852,      901
4,       11,      990,      932
5,       40,     1053,     1117
6,       34,      632,      635
7,       41,      519,      518
8,       77,      354,      345
9,       34,      744,      687
10,       26,      772,      768
11,       18,      719,      730
12,       69,      398,      381
13,       91,      367,      371
14,       87,      400,      407
15,       57,      457,      427
16,       74,      444,      430
17,       75,      671,      640
18,       40,     1051,     1053
19,       54,      643,      583
20,       63,      964,      889
** ... 2092 like lines cut
**
********************************** P R O P E R T I E S ************************
*SHELL SECTION, ELSET=EB1, SECTION INTEGRATION=SIMPSON, MATERIAL=Default-Steel
1.000000e+00
**
*END PART
**
**
**
********************************** E N D   P A R T S **********************************
**
**
********************************** A S S E M B L Y ************************************
**
*ASSEMBLY, NAME=ASSEMBLY1
**
*INSTANCE, NAME=Part-Default_1, PART=Part-Default
*END INSTANCE
**
*END ASSEMBLY
**
**
**
*MATERIAL, NAME = Default-Steel
*ELASTIC, TYPE=ISOTROPIC
2.068000e+05, 2.900000e-01
*DENSITY
7.000000e-06
*CONDUCTIVITY,TYPE=ISO
4.500000e-02
*SPECIFIC HEAT
5.000000e+02
**
**
************************************** H I S T O R Y *************************************
**
*PREPRINT
**
**************************************** S T E P 1 ***************************************
*STEP,INC=100,NAME=Default Set
**
*STATIC
1, 1, 1e-05, 1
**
