*HEADING
cubit(/home/scala/FASc-1.0_testPTF/preprocess):30-Oct-2020:
version: 14.0
**
********************************** P A R T S **********************************
*PART, NAME=Part-Default
**
********************************** N O D E S **********************************
*NODE, NSET=ALLNODES
1,     3.1661300890e+01,     3.4578309610e+01,   -2.441150e+03
2,     3.1868212084e+01,     3.4503421637e+01,   -2.438740e+03
3,     3.1787611926e+01,     3.4611524084e+01,   -4.129300e+03
4,     3.1646029985e+01,     3.4680250698e+01,   -4.017960e+03
5,     3.1527516083e+01,     3.4637236412e+01,   -2.472340e+03
6,     3.1503312617e+01,     3.4746784476e+01,   -4.398250e+03
7,     3.1383639268e+01,     3.4679370360e+01,   -2.519110e+03
8,     3.1360377989e+01,     3.4813162232e+01,   -4.774710e+03
9,     3.1245281016e+01,     3.4730040203e+01,   -2.498310e+03
10,     3.1218088089e+01,     3.4881315836e+01,   -4.676150e+03
11,     3.1063382546e+01,     3.4844833220e+01,   -2.460960e+03
12,     3.1076005350e+01,     3.4950266307e+01,   -4.338000e+03
13,     3.0944846626e+01,     3.4924685904e+01,   -2.481100e+03
14,     3.0934147931e+01,     3.5020086276e+01,   -3.747520e+03
15,     3.0827358441e+01,     3.5005644532e+01,   -2.277550e+03
16,     3.0792203842e+01,     3.5090058126e+01,   -3.074970e+03
17,     3.0668742575e+01,     3.5142105005e+01,   -2.330500e+03
18,     3.0872672245e+01,     3.5211497283e+01,   -5.761830e+03
19,     3.0730506712e+01,     3.5281771500e+01,   -4.995840e+03
20,     3.0587075753e+01,     3.5248588711e+01,   -2.312600e+03
** ... 383 like lines cut
**
********************************** E L E M E N T S ****************************
*ELEMENT, TYPE=STRI3, ELSET=EB1
1,        1,        2,        3
2,        3,        4,        1
3,        5,        1,        4
4,        4,        6,        5
5,        7,        5,        6
6,        7,        6,        8
7,        9,        7,        8
8,        9,        8,       10
9,       11,        9,       10
10,       11,       10,       12
11,       13,       11,       12
12,       13,       12,       14
13,       15,       13,       14
14,       15,       14,       16
15,       17,       16,       18
16,       17,       15,       16
17,       18,       19,       17
18,       20,       17,       19
19,       19,       21,       20
20,       22,       20,       21
** ... 702 like lines cut
**
********************************** P R O P E R T I E S ************************
*SHELL SECTION, ELSET=EB1, SECTION INTEGRATION=SIMPSON, MATERIAL=Default-Steel
1.000000e+00
**
*END PART
**
**
**
********************************** E N D   P A R T S **********************************
**
**
********************************** A S S E M B L Y ************************************
**
*ASSEMBLY, NAME=ASSEMBLY1
**
*INSTANCE, NAME=Part-Default_1, PART=Part-Default
*END INSTANCE
**
*END ASSEMBLY
**
**
**
*MATERIAL, NAME = Default-Steel
*ELASTIC, TYPE=ISOTROPIC
2.068000e+05, 2.900000e-01
*DENSITY
7.000000e-06
*CONDUCTIVITY,TYPE=ISO
4.500000e-02
*SPECIFIC HEAT
5.000000e+02
**
**
************************************** H I S T O R Y *************************************
**
*PREPRINT
**
**************************************** S T E P 1 ***************************************
*STEP,INC=100,NAME=Default Set
**
*STATIC
1, 1, 1e-05, 1
**
