*HEADING
cubit(D:\Lavoro\Tsunami\Stress_Drop\ANTI-FASc-main\ANTI-FASc-main\preprocess):09-Jun-2022:
version: 14.0
**
********************************** P A R T S **********************************
*PART, NAME=Part-Default
**
********************************** N O D E S **********************************
*NODE, NSET=ALLNODES
1,     1.9190536716e+01,     3.6760815584e+01,   -1.000000e+04
2,     1.9310988414e+01,     3.6875923848e+01,   -9.063760e+03
3,     1.9150145866e+01,     3.6889031268e+01,   -1.000000e+04
4,     2.0098556471e+01,     3.5346080814e+01,   -1.000000e+04
5,     2.0186865677e+01,     3.5465509024e+01,   -9.191590e+03
6,     2.0031512834e+01,     3.5469474679e+01,   -1.000000e+04
7,     2.0340466826e+01,     3.4710037185e+01,   -1.000000e+04
8,     2.0438997304e+01,     3.4803646943e+01,   -9.461600e+03
9,     2.0259549388e+01,     3.4827494419e+01,   -1.000000e+04
10,     1.9512199332e+01,     3.6352179663e+01,   -9.294030e+03
11,     1.9641970910e+01,     3.6460547977e+01,   -8.893670e+03
12,     1.9462856973e+01,     3.6483858565e+01,   -9.250670e+03
13,     1.9245263788e+01,     3.6633253820e+01,   -1.000000e+04
14,     1.9364005999e+01,     3.6747508831e+01,   -9.133800e+03
15,     1.9288696311e+01,     3.6502778483e+01,   -1.000000e+04
16,     1.9415617279e+01,     3.6616838544e+01,   -9.196640e+03
17,     1.9328990763e+01,     3.6371671210e+01,   -1.000000e+04
18,     1.9383014672e+01,     3.6244725897e+01,   -1.000000e+04
19,     1.9463570259e+01,     3.6126424553e+01,   -1.000000e+04
20,     1.9570706867e+01,     3.6225201287e+01,   -9.394800e+03
** ... 1620 like lines cut
**
********************************** E L E M E N T S ****************************
*ELEMENT, TYPE=STRI3, ELSET=EB1
1,        1,        2,        3
2,        4,        5,        6
3,        7,        8,        9
4,       10,       11,       12
5,       13,       14,        1
6,       13,       15,       16
7,       15,       17,       12
8,       17,       18,       10
9,       18,       19,       20
10,       19,       21,       22
11,       23,       24,       25
12,       24,        6,       26
13,       25,       27,       28
14,       20,       19,       22
15,       29,        9,       30
16,       31,       32,       33
17,       34,       35,       36
18,       34,       37,       38
19,       39,       40,       41
20,       39,       42,       43
** ... 3084 like lines cut
**
********************************** P R O P E R T I E S ************************
*SHELL SECTION, ELSET=EB1, SECTION INTEGRATION=SIMPSON, MATERIAL=Default-Steel
1.000000e+00
**
*END PART
**
**
**
********************************** E N D   P A R T S **********************************
**
**
********************************** A S S E M B L Y ************************************
**
*ASSEMBLY, NAME=ASSEMBLY1
**
*INSTANCE, NAME=Part-Default_1, PART=Part-Default
*END INSTANCE
**
*END ASSEMBLY
**
**
**
*MATERIAL, NAME = Default-Steel
*ELASTIC, TYPE=ISOTROPIC
2.068000e+05, 2.900000e-01
*DENSITY
7.000000e-06
*CONDUCTIVITY,TYPE=ISO
4.500000e-02
*SPECIFIC HEAT
5.000000e+02
**
**
************************************** H I S T O R Y *************************************
**
*PREPRINT
**
**************************************** S T E P 1 ***************************************
*STEP,INC=100,NAME=Default Set
**
*STATIC
1, 1, 1e-05, 1
**
