*HEADING
cubit(/home/scala/FASc-1.0_testExe/preprocess):15-Jan-2021:
version: 14.0
**
********************************** P A R T S **********************************
*PART, NAME=Part-Default
**
********************************** N O D E S **********************************
*NODE, NSET=ALLNODES
1,     1.4466902000e+02,     4.1021178000e+01,   -0.000000e+00
2,     1.4412739700e+02,     4.1318527000e+01,   -6.973167e+03
3,     1.4359841800e+02,     4.1618182000e+01,   -1.926953e+04
4,     1.4307333400e+02,     4.1908319000e+01,   -3.611394e+04
5,     1.4253869000e+02,     4.2182963000e+01,   -5.500000e+04
6,     1.4458695700e+02,     4.0719185000e+01,   -0.000000e+00
7,     1.4395445200e+02,     4.0932464000e+01,   -6.118295e+03
8,     1.4337490600e+02,     4.1204143000e+01,   -1.850873e+04
9,     1.4279576200e+02,     4.1471580000e+01,   -3.466777e+04
10,     1.4218574800e+02,     4.1671969000e+01,   -5.500000e+04
11,     1.4439731300e+02,     4.0399423000e+01,   -0.000000e+00
12,     1.4378257100e+02,     4.0571659000e+01,   -5.475107e+03
13,     1.4320356300e+02,     4.0781581000e+01,   -1.798212e+04
14,     1.4265514800e+02,     4.1017272000e+01,   -3.554029e+04
15,     1.4205487200e+02,     4.1149649000e+01,   -5.500000e+04
16,     1.4428172900e+02,     4.0072529000e+01,   -0.000000e+00
17,     1.4364623700e+02,     4.0167290000e+01,   -5.345117e+03
18,     1.4305909500e+02,     4.0346238000e+01,   -1.717802e+04
19,     1.4248852400e+02,     4.0541137000e+01,   -3.376313e+04
20,     1.4189977500e+02,     4.0660345000e+01,   -5.500000e+04
** ... 1153 like lines cut
**
********************************** E L E M E N T S ****************************
*ELEMENT, TYPE=STRI3, ELSET=EB1
1,       15,      672,      718
2,       37,      976,      965
3,       33,      850,      879
4,       27,     1042,     1070
5,       17,     1094,     1095
6,       78,      424,      422
7,       78,      454,      424
8,       73,      471,      450
9,       63,      552,      536
10,       83,      431,      436
11,       72,      610,      570
12,       39,      687,      641
13,       69,      415,      394
14,       52,      847,      871
15,       50,      418,      449
16,       81,      721,      677
17,       43,      827,      784
18,        8,     1038,     1044
19,       19,      807,      848
20,       29,      704,      744
** ... 2156 like lines cut
**
********************************** P R O P E R T I E S ************************
*SHELL SECTION, ELSET=EB1, SECTION INTEGRATION=SIMPSON, MATERIAL=Default-Steel
1.000000e+00
**
*END PART
**
**
**
********************************** E N D   P A R T S **********************************
**
**
********************************** A S S E M B L Y ************************************
**
*ASSEMBLY, NAME=ASSEMBLY1
**
*INSTANCE, NAME=Part-Default_1, PART=Part-Default
*END INSTANCE
**
*END ASSEMBLY
**
**
**
*MATERIAL, NAME = Default-Steel
*ELASTIC, TYPE=ISOTROPIC
2.068000e+05, 2.900000e-01
*DENSITY
7.000000e-06
*CONDUCTIVITY,TYPE=ISO
4.500000e-02
*SPECIFIC HEAT
5.000000e+02
**
**
************************************** H I S T O R Y *************************************
**
*PREPRINT
**
**************************************** S T E P 1 ***************************************
*STEP,INC=100,NAME=Default Set
**
*STATIC
1, 1, 1e-05, 1
**
