*HEADING
cubit(D:\Lavoro\Tsunami\Stress_Drop\ANTI-FASc_compiled\ANTI-FASc_test\preprocess):15-Jul-2022:
version: 14.0
**
********************************** P A R T S **********************************
*PART, NAME=Part-Default
**
********************************** N O D E S **********************************
*NODE, NSET=ALLNODES
1,    -1.7367500000e+02,    -1.4558333000e+01,   -0.000000e+00
2,    -1.7386019800e+02,    -1.4816758000e+01,   -7.477490e+03
3,    -1.7402727600e+02,    -1.5063702000e+01,   -2.155362e+04
4,    -1.7417917100e+02,    -1.5296347000e+01,   -4.000000e+04
5,    -1.7321479000e+02,    -1.4772002000e+01,   -0.000000e+00
6,    -1.7344504600e+02,    -1.5084240000e+01,   -6.280907e+03
7,    -1.7372715500e+02,    -1.5331720000e+01,   -1.978112e+04
8,    -1.7399631300e+02,    -1.5556486000e+01,   -4.000000e+04
9,    -1.7270487000e+02,    -1.5110642000e+01,   -0.000000e+00
10,    -1.7306164400e+02,    -1.5388769000e+01,   -5.063675e+03
11,    -1.7343575400e+02,    -1.5619492000e+01,   -1.841237e+04
12,    -1.7379373800e+02,    -1.5823571000e+01,   -4.000000e+04
13,    -1.7243153900e+02,    -1.5706178000e+01,   -0.000000e+00
14,    -1.7286545300e+02,    -1.5825734000e+01,   -5.391361e+03
15,    -1.7326628700e+02,    -1.5989259000e+01,   -1.856724e+04
16,    -1.7365565900e+02,    -1.6111220000e+01,   -4.000000e+04
17,    -1.7236914900e+02,    -1.6283289000e+01,   -0.000000e+00
18,    -1.7280693100e+02,    -1.6318643000e+01,   -5.372087e+03
19,    -1.7322067400e+02,    -1.6396322000e+01,   -1.903337e+04
20,    -1.7361334200e+02,    -1.6438336000e+01,   -4.000000e+04
** ... 3737 like lines cut
**
********************************** E L E M E N T S ****************************
*ELEMENT, TYPE=STRI3, ELSET=EB1
1,      274,     1204,     1213
2,       30,     3655,     3626
3,      246,     1439,     1453
4,      275,     1161,     1173
5,      282,     1103,     1119
6,      259,     1271,     1280
7,      278,     1166,     1176
8,      235,     1489,     1495
9,      163,     2214,     2200
10,      262,     1312,     1325
11,      218,     1740,     1762
12,      143,     2357,     2349
13,       63,     3124,     3133
14,      187,     1971,     1948
15,       86,     3006,     3017
16,       72,     2997,     3010
17,       19,     3569,     3536
18,       11,     3507,     3548
19,       39,     3364,     3390
20,      149,     2601,     2553
** ... 6892 like lines cut
**
********************************** P R O P E R T I E S ************************
*SHELL SECTION, ELSET=EB1, SECTION INTEGRATION=SIMPSON, MATERIAL=Default-Steel
1.000000e+00
**
*END PART
**
**
**
********************************** E N D   P A R T S **********************************
**
**
********************************** A S S E M B L Y ************************************
**
*ASSEMBLY, NAME=ASSEMBLY1
**
*INSTANCE, NAME=Part-Default_1, PART=Part-Default
*END INSTANCE
**
*END ASSEMBLY
**
**
**
*MATERIAL, NAME = Default-Steel
*ELASTIC, TYPE=ISOTROPIC
2.068000e+05, 2.900000e-01
*DENSITY
7.000000e-06
*CONDUCTIVITY,TYPE=ISO
4.500000e-02
*SPECIFIC HEAT
5.000000e+02
**
**
************************************** H I S T O R Y *************************************
**
*PREPRINT
**
**************************************** S T E P 1 ***************************************
*STEP,INC=100,NAME=Default Set
**
*STATIC
1, 1, 1e-05, 1
**
