*HEADING
cubit(/home/scala/FASc-1.0_testExe/preprocess):21-Dec-2020:
version: 14.0
**
********************************** P A R T S **********************************
*PART, NAME=Part-Default
**
********************************** N O D E S **********************************
*NODE, NSET=ALLNODES
1,     6.6341667000e+01,     2.4725000000e+01,   -0.000000e+00
2,     6.6424884000e+01,     2.5065475000e+01,   -2.634491e+03
3,     6.6504841000e+01,     2.5406325000e+01,   -5.485468e+03
4,     6.6554455000e+01,     2.5750480000e+01,   -1.029010e+04
5,     6.6643183000e+01,     2.6087351000e+01,   -1.611186e+04
6,     6.6723572000e+01,     2.6425457000e+01,   -2.236013e+04
7,     6.6786803000e+01,     2.6766948000e+01,   -2.868263e+04
8,     6.6867933000e+01,     2.7106104000e+01,   -3.472038e+04
9,     6.6950000000e+01,     2.7446583000e+01,   -4.000000e+04
10,     6.5937253000e+01,     2.4608169000e+01,   -0.000000e+00
11,     6.5942750000e+01,     2.4989815000e+01,   -2.324010e+03
12,     6.5948282000e+01,     2.5371461000e+01,   -4.648019e+03
13,     6.5978999000e+01,     2.5750853000e+01,   -8.892620e+03
14,     6.6053968000e+01,     2.6123912000e+01,   -1.430295e+04
15,     6.6151325000e+01,     2.6492601000e+01,   -2.061296e+04
16,     6.6246397000e+01,     2.6861448000e+01,   -2.740762e+04
17,     6.6341149000e+01,     2.7231015000e+01,   -3.406794e+04
18,     6.6476157000e+01,     2.7592017000e+01,   -4.000000e+04
19,     6.5525356000e+01,     2.4501580000e+01,   -0.000000e+00
20,     6.5504844000e+01,     2.4921802000e+01,   -2.395690e+03
** ... 2653 like lines cut
**
********************************** E L E M E N T S ****************************
*ELEMENT, TYPE=STRI3, ELSET=EB1
1,      121,     1389,     1416
2,      106,     1614,     1589
3,      130,     1297,     1282
4,      102,     1588,     1611
5,      105,     1596,     1573
6,      156,     1016,     1043
7,       48,     2171,     2144
8,       30,     2330,     2334
9,       18,     2646,     2650
10,       40,     2250,     2223
11,       33,     2371,     2349
12,       94,     1718,     1693
13,       35,     2439,     2415
14,       47,     2175,     2149
15,       15,     2572,     2598
16,      155,      990,     1012
17,      172,      867,      838
18,      155,     1012,     1039
19,      175,      825,      839
20,      152,     1106,     1109
** ... 5100 like lines cut
**
********************************** P R O P E R T I E S ************************
*SHELL SECTION, ELSET=EB1, SECTION INTEGRATION=SIMPSON, MATERIAL=Default-Steel
1.000000e+00
**
*END PART
**
**
**
********************************** E N D   P A R T S **********************************
**
**
********************************** A S S E M B L Y ************************************
**
*ASSEMBLY, NAME=ASSEMBLY1
**
*INSTANCE, NAME=Part-Default_1, PART=Part-Default
*END INSTANCE
**
*END ASSEMBLY
**
**
**
*MATERIAL, NAME = Default-Steel
*ELASTIC, TYPE=ISOTROPIC
2.068000e+05, 2.900000e-01
*DENSITY
7.000000e-06
*CONDUCTIVITY,TYPE=ISO
4.500000e-02
*SPECIFIC HEAT
5.000000e+02
**
**
************************************** H I S T O R Y *************************************
**
*PREPRINT
**
**************************************** S T E P 1 ***************************************
*STEP,INC=100,NAME=Default Set
**
*STATIC
1, 1, 1e-05, 1
**
