*HEADING
cubit(/home/scala/FASc-master/preprocess):05-Oct-2020:
version: 14.0
**
********************************** P A R T S **********************************
*PART, NAME=Part-Default
**
********************************** N O D E S **********************************
*NODE, NSET=ALLNODES
1,    -8.3583333000e+01,     8.1100000000e+00,   -0.000000e+00
2,    -8.3425220000e+01,     8.3562920000e+00,   -1.277067e+04
3,    -8.3272934000e+01,     8.5834670000e+00,   -3.009210e+04
4,    -8.3151886000e+01,     8.8059950000e+00,   -5.000000e+04
5,    -8.4020985000e+01,     8.3368530000e+00,   -0.000000e+00
6,    -8.3826593000e+01,     8.6106010000e+00,   -1.026591e+04
7,    -8.3633837000e+01,     8.8520410000e+00,   -2.813447e+04
8,    -8.3449832000e+01,     9.0753640000e+00,   -5.000000e+04
9,    -8.4352511000e+01,     8.6149030000e+00,   -0.000000e+00
10,    -8.4141027000e+01,     8.9105030000e+00,   -7.607981e+03
11,    -8.3935666000e+01,     9.1696270000e+00,   -2.597731e+04
12,    -8.3738679000e+01,     9.3972100000e+00,   -5.000000e+04
13,    -8.4688967000e+01,     8.7838420000e+00,   -0.000000e+00
14,    -8.4491011000e+01,     9.1503370000e+00,   -8.359872e+03
15,    -8.4264143000e+01,     9.4640770000e+00,   -2.756718e+04
16,    -8.4020989000e+01,     9.7508500000e+00,   -5.000000e+04
17,    -8.5050474000e+01,     8.9565740000e+00,   -0.000000e+00
18,    -8.4842629000e+01,     9.3393250000e+00,   -7.591765e+03
19,    -8.4622041000e+01,     9.6912690000e+00,   -2.440430e+04
20,    -8.4419774000e+01,     1.0008764000e+01,   -5.000000e+04
** ... 3009 like lines cut
**
********************************** E L E M E N T S ****************************
*ELEMENT, TYPE=STRI3, ELSET=EB1
1,       67,     2423,     2432
2,      163,     1523,     1528
3,      203,     1130,     1141
4,      158,     1532,     1542
5,      231,      886,      889
6,      227,      902,      896
7,      142,     1702,     1692
8,      226,      861,      859
9,       98,     2092,     2102
10,       75,     2355,     2358
11,       66,     2404,     2410
12,       36,     2758,     2752
13,       14,     2907,     2898
14,       36,     2752,     2760
15,       23,     2840,     2838
16,       27,     2804,     2815
17,       10,     2929,     2932
18,      166,     1455,     1470
19,      161,     1493,     1484
20,      183,     1334,     1327
** ... 5548 like lines cut
**
********************************** P R O P E R T I E S ************************
*SHELL SECTION, ELSET=EB1, SECTION INTEGRATION=SIMPSON, MATERIAL=Default-Steel
1.000000e+00
**
*END PART
**
**
**
********************************** E N D   P A R T S **********************************
**
**
********************************** A S S E M B L Y ************************************
**
*ASSEMBLY, NAME=ASSEMBLY1
**
*INSTANCE, NAME=Part-Default_1, PART=Part-Default
*END INSTANCE
**
*END ASSEMBLY
**
**
**
*MATERIAL, NAME = Default-Steel
*ELASTIC, TYPE=ISOTROPIC
2.068000e+05, 2.900000e-01
*DENSITY
7.000000e-06
*CONDUCTIVITY,TYPE=ISO
4.500000e-02
*SPECIFIC HEAT
5.000000e+02
**
**
************************************** H I S T O R Y *************************************
**
*PREPRINT
**
**************************************** S T E P 1 ***************************************
*STEP,INC=100,NAME=Default Set
**
*STATIC
1, 1, 1e-05, 1
**
