*HEADING
cubit(/home/scala/FASc-master/preprocess):06-Oct-2020:
version: 14.0
**
********************************** P A R T S **********************************
*PART, NAME=Part-Default
**
********************************** N O D E S **********************************
*NODE, NSET=ALLNODES
1,     1.6321613100e+02,    -5.0013218000e+01,   -0.000000e+00
2,     1.6308415600e+02,    -4.9878492000e+01,   -2.000000e+04
3,     1.6283083400e+02,    -5.0327656000e+01,   -0.000000e+00
4,     1.6264746000e+02,    -5.0234871000e+01,   -2.000000e+04
5,     1.6242152700e+02,    -5.0661689000e+01,   -0.000000e+00
6,     1.6223644400e+02,    -5.0570292000e+01,   -2.000000e+04
7,     1.6201474000e+02,    -5.0993664000e+01,   -0.000000e+00
8,     1.6182863000e+02,    -5.0903100000e+01,   -2.000000e+04
9,     1.6160556800e+02,    -5.1327586000e+01,   -0.000000e+00
10,     1.6141843600e+02,    -5.1237850000e+01,   -2.000000e+04
11,     1.6119870600e+02,    -5.1659623000e+01,   -0.000000e+00
12,     1.6101055300e+02,    -5.1570715000e+01,   -2.000000e+04
13,     1.6079219400e+02,    -5.1991374000e+01,   -0.000000e+00
14,     1.6060263200e+02,    -5.1903610000e+01,   -2.000000e+04
15,     1.6038761500e+02,    -5.2321547000e+01,   -0.000000e+00
16,     1.6019589300e+02,    -5.2243742000e+01,   -2.000000e+04
17,     1.6003561600e+02,    -5.2681304000e+01,   -0.000000e+00
18,     1.5984296800e+02,    -5.2612699000e+01,   -2.000000e+04
19,     1.5968313100e+02,    -5.3044363000e+01,   -0.000000e+00
20,     1.5949347700e+02,    -5.2978066000e+01,   -2.000000e+04
** ... 245 like lines cut
**
********************************** E L E M E N T S ****************************
*ELEMENT, TYPE=STRI3, ELSET=EB1
1,       22,      118,      122
2,       21,      132,      130
3,        6,      230,      232
4,       18,      150,      152
5,        8,      216,      218
6,       25,      103,       99
7,       23,      117,      113
8,       27,       89,       85
9,       25,      105,      103
10,       27,       91,       89
11,       17,      160,      158
12,       21,      130,      127
13,       19,      144,      141
14,       19,      146,      144
15,       15,      171,      168
16,        5,      238,      236
17,       13,      182,      180
18,        4,      249,      251
19,        4,      244,      246
20,        2,      260,      263
** ... 396 like lines cut
**
********************************** P R O P E R T I E S ************************
*SHELL SECTION, ELSET=EB1, SECTION INTEGRATION=SIMPSON, MATERIAL=Default-Steel
1.000000e+00
**
*END PART
**
**
**
********************************** E N D   P A R T S **********************************
**
**
********************************** A S S E M B L Y ************************************
**
*ASSEMBLY, NAME=ASSEMBLY1
**
*INSTANCE, NAME=Part-Default_1, PART=Part-Default
*END INSTANCE
**
*END ASSEMBLY
**
**
**
*MATERIAL, NAME = Default-Steel
*ELASTIC, TYPE=ISOTROPIC
2.068000e+05, 2.900000e-01
*DENSITY
7.000000e-06
*CONDUCTIVITY,TYPE=ISO
4.500000e-02
*SPECIFIC HEAT
5.000000e+02
**
**
************************************** H I S T O R Y *************************************
**
*PREPRINT
**
**************************************** S T E P 1 ***************************************
*STEP,INC=100,NAME=Default Set
**
*STATIC
1, 1, 1e-05, 1
**
