*HEADING
cubit(/home/scala/FASc-master/preprocess):06-Oct-2020:
version: 14.0
**
********************************** P A R T S **********************************
*PART, NAME=Part-Default
**
********************************** N O D E S **********************************
*NODE, NSET=ALLNODES
1,     1.2474016400e+02,     1.4885021000e+01,   -0.000000e+00
2,     1.2428370800e+02,     1.4638380000e+01,   -1.170935e+04
3,     1.2387067800e+02,     1.4430678000e+01,   -4.000000e+04
4,     1.2497152900e+02,     1.4487063000e+01,   -0.000000e+00
5,     1.2449558700e+02,     1.4240060000e+01,   -1.242645e+04
6,     1.2406134600e+02,     1.4022781000e+01,   -4.000000e+04
7,     1.2516619600e+02,     1.4062469000e+01,   -0.000000e+00
8,     1.2470222400e+02,     1.3845601000e+01,   -1.198805e+04
9,     1.2430039000e+02,     1.3633397000e+01,   -4.000000e+04
10,     1.2533510200e+02,     1.3670973000e+01,   -0.000000e+00
11,     1.2489244500e+02,     1.3463652000e+01,   -1.277160e+04
12,     1.2451779200e+02,     1.3244153000e+01,   -4.000000e+04
13,     1.2549259000e+02,     1.3270191000e+01,   -0.000000e+00
14,     1.2509911400e+02,     1.3089810000e+01,   -1.330360e+04
15,     1.2477723700e+02,     1.2892656000e+01,   -4.000000e+04
16,     1.2563519400e+02,     1.2886350000e+01,   -0.000000e+00
17,     1.2529130200e+02,     1.2705170000e+01,   -1.469564e+04
18,     1.2499640600e+02,     1.2536562000e+01,   -4.000000e+04
19,     1.2589424600e+02,     1.2532421000e+01,   -0.000000e+00
20,     1.2553008100e+02,     1.2336622000e+01,   -1.432936e+04
** ... 1177 like lines cut
**
********************************** E L E M E N T S ****************************
*ELEMENT, TYPE=STRI3, ELSET=EB1
1,       28,      604,      611
2,       29,      569,      549
3,       31,      629,      636
4,       41,      686,      667
5,       41,      667,      663
6,       35,      609,      615
7,       55,      872,      873
8,       32,      580,      591
9,       65,      833,      846
10,       38,      664,      656
11,       25,      618,      597
12,       56,      782,      785
13,       14,      428,      426
14,       11,      424,      403
15,       23,      525,      518
16,       17,      452,      459
17,       17,      445,      452
18,       16,      494,      502
19,       65,      828,      833
20,       38,      656,      643
** ... 2092 like lines cut
**
********************************** P R O P E R T I E S ************************
*SHELL SECTION, ELSET=EB1, SECTION INTEGRATION=SIMPSON, MATERIAL=Default-Steel
1.000000e+00
**
*END PART
**
**
**
********************************** E N D   P A R T S **********************************
**
**
********************************** A S S E M B L Y ************************************
**
*ASSEMBLY, NAME=ASSEMBLY1
**
*INSTANCE, NAME=Part-Default_1, PART=Part-Default
*END INSTANCE
**
*END ASSEMBLY
**
**
**
*MATERIAL, NAME = Default-Steel
*ELASTIC, TYPE=ISOTROPIC
2.068000e+05, 2.900000e-01
*DENSITY
7.000000e-06
*CONDUCTIVITY,TYPE=ISO
4.500000e-02
*SPECIFIC HEAT
5.000000e+02
**
**
************************************** H I S T O R Y *************************************
**
*PREPRINT
**
**************************************** S T E P 1 ***************************************
*STEP,INC=100,NAME=Default Set
**
*STATIC
1, 1, 1e-05, 1
**
