*HEADING
cubit(/home/scala/FASc-1.0_testPTF/preprocess):24-Oct-2020:
version: 14.0
**
********************************** P A R T S **********************************
*PART, NAME=Part-Default
**
********************************** N O D E S **********************************
*NODE, NSET=ALLNODES
1,    -6.4637966000e+01,    -5.7962602000e+01,   -0.000000e+00
2,    -6.4327571000e+01,    -5.7407188000e+01,   -8.238155e+03
3,    -6.3979563000e+01,    -5.6863338000e+01,   -1.878639e+04
4,    -6.3697500000e+01,    -5.6314744000e+01,   -3.548130e+04
5,    -6.3436507000e+01,    -5.5769657000e+01,   -5.500000e+04
6,    -6.5464908000e+01,    -5.7761997000e+01,   -0.000000e+00
7,    -6.5078071000e+01,    -5.7224769000e+01,   -8.196846e+03
8,    -6.4716497000e+01,    -5.6686875000e+01,   -1.873675e+04
9,    -6.4421730000e+01,    -5.6146516000e+01,   -3.544101e+04
10,    -6.4084671000e+01,    -5.5621257000e+01,   -5.500000e+04
11,    -6.6250356000e+01,    -5.7571459000e+01,   -0.000000e+00
12,    -6.5837469000e+01,    -5.7042432000e+01,   -8.123134e+03
13,    -6.5455823000e+01,    -5.6511776000e+01,   -1.862204e+04
14,    -6.5133695000e+01,    -5.5980371000e+01,   -3.542441e+04
15,    -6.4762784000e+01,    -5.5466000000e+01,   -5.500000e+04
16,    -6.7017187000e+01,    -5.7385437000e+01,   -0.000000e+00
17,    -6.6590772000e+01,    -5.6862167000e+01,   -8.039108e+03
18,    -6.6190530000e+01,    -5.6338341000e+01,   -1.848485e+04
19,    -6.5822496000e+01,    -5.5819648000e+01,   -3.540776e+04
20,    -6.5452476000e+01,    -5.5308092000e+01,   -5.500000e+04
** ... 11217 like lines cut
**
********************************** E L E M E N T S ****************************
*ELEMENT, TYPE=STRI3, ELSET=EB1
1,      728,     3736,     3800
2,      487,     8945,     8885
3,      567,     5335,     5299
4,      752,     4220,     4214
5,      724,     3801,     3854
6,      630,     4464,     4481
7,      612,     4143,     4200
8,      308,     8983,     8905
9,      457,     9866,     9882
10,      754,     4555,     4548
11,      279,     8334,     8325
12,      733,     3974,     3887
13,      372,     9197,     9294
14,      309,     9383,     9331
15,      396,     9338,     9354
16,      163,     6800,     6944
17,      449,    10735,    10680
18,      564,     5736,     5787
19,      222,     6584,     6674
20,       82,     6648,     6495
** ... 21100 like lines cut
**
********************************** P R O P E R T I E S ************************
*SHELL SECTION, ELSET=EB1, SECTION INTEGRATION=SIMPSON, MATERIAL=Default-Steel
1.000000e+00
**
*END PART
**
**
**
********************************** E N D   P A R T S **********************************
**
**
********************************** A S S E M B L Y ************************************
**
*ASSEMBLY, NAME=ASSEMBLY1
**
*INSTANCE, NAME=Part-Default_1, PART=Part-Default
*END INSTANCE
**
*END ASSEMBLY
**
**
**
*MATERIAL, NAME = Default-Steel
*ELASTIC, TYPE=ISOTROPIC
2.068000e+05, 2.900000e-01
*DENSITY
7.000000e-06
*CONDUCTIVITY,TYPE=ISO
4.500000e-02
*SPECIFIC HEAT
5.000000e+02
**
**
************************************** H I S T O R Y *************************************
**
*PREPRINT
**
**************************************** S T E P 1 ***************************************
*STEP,INC=100,NAME=Default Set
**
*STATIC
1, 1, 1e-05, 1
**
