*HEADING
cubit(/home/scala/FASc-1.0_testExe/preprocess):22-Dec-2020:
version: 14.0
**
********************************** P A R T S **********************************
*PART, NAME=Part-Default
**
********************************** N O D E S **********************************
*NODE, NSET=ALLNODES
1,     1.2133188300e+02,    -1.1477254000e+01,   -0.000000e+00
2,     1.2122921100e+02,    -1.0956249000e+01,   -6.754843e+03
3,     1.2130473500e+02,    -1.0431006000e+01,   -1.752724e+04
4,     1.2130880300e+02,    -9.9141750000e+00,   -3.141639e+04
5,     1.2121227300e+02,    -9.4636060000e+00,   -5.000000e+04
6,     1.2083041200e+02,    -1.1444823000e+01,   -0.000000e+00
7,     1.2082252800e+02,    -1.0932382000e+01,   -6.794759e+03
8,     1.2087080100e+02,    -1.0424035000e+01,   -1.622033e+04
9,     1.2089440800e+02,    -9.9246040000e+00,   -3.041706e+04
10,     1.2088065600e+02,    -9.4382200000e+00,   -5.000000e+04
11,     1.2037213800e+02,    -1.1415186000e+01,   -0.000000e+00
12,     1.2038021200e+02,    -1.0901933000e+01,   -5.865177e+03
13,     1.2043605000e+02,    -1.0394915000e+01,   -1.510472e+04
14,     1.2046871700e+02,    -9.8974100000e+00,   -3.027373e+04
15,     1.2047533000e+02,    -9.4110400000e+00,   -5.000000e+04
16,     1.1993536200e+02,    -1.1386939000e+01,   -0.000000e+00
17,     1.1997027600e+02,    -1.0873257000e+01,   -5.626550e+03
18,     1.2001454200e+02,    -1.0363730000e+01,   -1.461562e+04
19,     1.2004301900e+02,    -9.8648940000e+00,   -2.982477e+04
20,     1.2006440400e+02,    -9.3787400000e+00,   -5.000000e+04
** ... 8157 like lines cut
**
********************************** E L E M E N T S ****************************
*ELEMENT, TYPE=STRI3, ELSET=EB1
1,      397,     3075,     2945
2,      304,     5231,     5212
3,      474,     2818,     2908
4,      475,     3192,     3171
5,      499,     3794,     3728
6,      592,     2642,     2536
7,      362,     4191,     4246
8,       18,     8035,     8036
9,      257,     5565,     5582
10,      359,     4674,     4690
11,      274,     5535,     5516
12,      317,     4972,     4962
13,      539,     4536,     4540
14,      187,     6310,     6298
15,      379,     4210,     4251
16,      362,     4309,     4247
17,      373,     4124,     4174
18,      384,     4098,     4023
19,      380,     4387,     4417
20,      487,     2658,     2681
** ... 15340 like lines cut
**
********************************** P R O P E R T I E S ************************
*SHELL SECTION, ELSET=EB1, SECTION INTEGRATION=SIMPSON, MATERIAL=Default-Steel
1.000000e+00
**
*END PART
**
**
**
********************************** E N D   P A R T S **********************************
**
**
********************************** A S S E M B L Y ************************************
**
*ASSEMBLY, NAME=ASSEMBLY1
**
*INSTANCE, NAME=Part-Default_1, PART=Part-Default
*END INSTANCE
**
*END ASSEMBLY
**
**
**
*MATERIAL, NAME = Default-Steel
*ELASTIC, TYPE=ISOTROPIC
2.068000e+05, 2.900000e-01
*DENSITY
7.000000e-06
*CONDUCTIVITY,TYPE=ISO
4.500000e-02
*SPECIFIC HEAT
5.000000e+02
**
**
************************************** H I S T O R Y *************************************
**
*PREPRINT
**
**************************************** S T E P 1 ***************************************
*STEP,INC=100,NAME=Default Set
**
*STATIC
1, 1, 1e-05, 1
**
